*Heading
** Job name: Test Model name: Model-1
** Generated by: Abaqus/CAE 2022
*Preprint, echo=YES, model=NO, history=NO, contact=NO
**
** PARTS
**
*Part, name=Part-1
*Node
1,          15.,          10.,0.819999995
2,          15.,   8.96000004,0.819999995
3,          15.,   7.92000008,0.819999995
4,          15.,   6.88000011,0.819999995
5,          15.,   5.84000015,0.819999995
6,          15.,   4.80000019,0.819999995
7,          15.,   3.75999999,0.819999995
8,          15.,   2.72000003,0.819999995
9,          15.,   1.67999995,0.819999995
10,          15.,  0.639999986,0.819999995
11,          15.,          10.,0.4099999965
12,          15.,   8.96000004,0.4099999965
13,          15.,   7.92000008,0.4099999965
14,          15.,   6.88000011,0.4099999965
15,          15.,   5.84000015,0.4099999965
16,          15.,   4.80000019,0.4099999965
17,          15.,   3.75999999,0.4099999965
18,          15.,   2.72000003,0.4099999965
19,          15.,   1.67999995,0.4099999965
20,          15.,  0.639999986,0.4099999965
** ... 310 like lines cut
*Element, type=C3D8H
  1,  31,  32,  42,  41,   1,   2,  12,  11
  2,  32,  33,  43,  42,   2,   3,  13,  12
  3,  33,  34,  44,  43,   3,   4,  14,  13
  4,  34,  35,  45,  44,   4,   5,  15,  14
  5,  35,  36,  46,  45,   5,   6,  16,  15
  6,  36,  37,  47,  46,   6,   7,  17,  16
  7,  37,  38,  48,  47,   7,   8,  18,  17
  8,  38,  39,  49,  48,   8,   9,  19,  18
  9,  39,  40,  50,  49,   9,  10,  20,  19
 10,  41,  42,  52,  51,  11,  12,  22,  21
 11,  42,  43,  53,  52,  12,  13,  23,  22
 12,  43,  44,  54,  53,  13,  14,  24,  23
 13,  44,  45,  55,  54,  14,  15,  25,  24
 14,  45,  46,  56,  55,  15,  16,  26,  25
 15,  46,  47,  57,  56,  16,  17,  27,  26
 16,  47,  48,  58,  57,  17,  18,  28,  27
 17,  48,  49,  59,  58,  18,  19,  29,  28
 18,  49,  50,  60,  59,  19,  20,  30,  29
 19,  61,  62,  72,  71,  31,  32,  42,  41
 20,  62,  63,  73,  72,  32,  33,  43,  42
** ... 160 like lines cut
*Nset, nset=load_x, generate
  1,  30,   1
*Elset, elset=load_x, generate
  1,  18,   1
*Nset, nset=loady, generate
   1,  321,   10
*Elset, elset=loady, generate
   1,  172,    9
*Nset, nset=BCx, generate
 301,  330,    1
*Elset, elset=BCx, generate
 163,  180,    1
*Nset, nset=BCy, generate
  10,  330,   10
*Elset, elset=BCy, generate
   9,  180,    9
*Nset, nset=BCz
  21,  22,  23,  24,  25,  26,  27,  28,  29,  30,  51,  52,  53,  54,  55,  56
  57,  58,  59,  60,  81,  82,  83,  84,  85,  86,  87,  88,  89,  90, 111, 112
 113, 114, 115, 116, 117, 118, 119, 120, 141, 142, 143, 144, 145, 146, 147, 148
 149, 150, 171, 172, 173, 174, 175, 176, 177, 178, 179, 180, 201, 202, 203, 204
 205, 206, 207, 208, 209, 210, 231, 232, 233, 234, 235, 236, 237, 238, 239, 240
 261, 262, 263, 264, 265, 266, 267, 268, 269, 270, 291, 292, 293, 294, 295, 296
 297, 298, 299, 300, 321, 322, 323, 324, 325, 326, 327, 328, 329, 330
*Elset, elset=BCz
  10,  11,  12,  13,  14,  15,  16,  17,  18,  28,  29,  30,  31,  32,  33,  34
  35,  36,  46,  47,  48,  49,  50,  51,  52,  53,  54,  64,  65,  66,  67,  68
  69,  70,  71,  72,  82,  83,  84,  85,  86,  87,  88,  89,  90, 100, 101, 102
 103, 104, 105, 106, 107, 108, 118, 119, 120, 121, 122, 123, 124, 125, 126, 136
 137, 138, 139, 140, 141, 142, 143, 144, 154, 155, 156, 157, 158, 159, 160, 161
 162, 172, 173, 174, 175, 176, 177, 178, 179, 180
*Nset, nset=Whole_part, generate
   1,  330,    1
*Elset, elset=Whole_part, generate
   1,  180,    1
** Section: Sample
*parameter 
 Pi = 3.141592654
 gamma = 60
 theta1 = gamma - 90
 c1 = cos(theta1*Pi/180)
 s1 = sin(theta1*Pi/180)
 theta2 = theta1-2*gamma
 c2 = cos(theta2*Pi/180)
 s2 = sin(theta2*Pi/180+1)
*orientation,name=ori-1,local directions=2
 1.0,0.0,0.0,0.0,1.0,0.0
 3,0.0
 <c1>, <s1>, 0.0
 <c2>, <s2>, 0.0
*Solid Section, elset=Whole_part, material=HGO_model, orientation=ori-1
1.,
*End Part
**  
**
** ASSEMBLY
**
*Assembly, name=Assembly
**  
*Instance, name=Part-1-1, part=Part-1
*End Instance
**  
*End Assembly
** 
** MATERIALS
** 
*Material, name=HGO_model
*density
1.0e-4
*Anisotropic Hyperelastic, holzapfel, local direction=2
 3.96,    0., 41.84,  3.83,  0.26
** 
** BOUNDARY CONDITIONS
** 
** Name: BC-x Type: Symmetry/Antisymmetry/Encastre
*Boundary
Part-1-1.BCx, XSYMM
** Name: BC-y Type: Symmetry/Antisymmetry/Encastre
*Boundary
Part-1-1.BCy, YSYMM
** Name: BC-z Type: Symmetry/Antisymmetry/Encastre
*Boundary
Part-1-1.BCz, ZSYMM
** ----------------------------------------------------------------
** 
** STEP: Load
** 
*Step, name=Load, nlgeom=YES
*Static
0.01, 1., 1e-06, 0.1
** 
** BOUNDARY CONDITIONS
** 
** Name: Loadx Type: Displacement/Rotation
*Boundary
Part-1-1.load_x, 1, 1, 20.
** Name: Loady Type: Displacement/Rotation
*Boundary
Part-1-1.loady, 2, 2, 20.
** 
** OUTPUT REQUESTS
** 
*Restart, write, frequency=0
** 
** FIELD OUTPUT: F-Output-1
** 
*Output, field, variable=PRESELECT
** 
** HISTORY OUTPUT: H-Output-1
** 
*Output, history
*Element Output, elset=Part-1-1.load_x
E11, E22, MISES, S11, S22
** 
** HISTORY OUTPUT: H-Output-1
** 
*Output, history
*Element Output, elset=Part-1-1.load_x
E11, E22, MISES, S11, S22
** 
** HISTORY OUTPUT: H-Output-y
** 
*Element Output, elset=Part-1-1.loady
E11, E22, MISES, S11, S22
** 
** HISTORY OUTPUT: H-Output-3
** 
*Output, history, variable=PRESELECT
*End Step
